# created with PyMOL 2.5.4
@<TRIPOS>MOLECULE
BCL
140 148 1               
SMALL
USER_CHARGES
@<TRIPOS>ATOM
1	  MG	41.707	47.680	22.121	Mg	1	BCL0	0.000	
2	 CHA	38.575	48.897	22.425	C.2	1	BCL0	0.000	
3	 CHB	42.547	50.559	20.576	C.2	1	BCL0	0.000	
4	 CHC	44.968	47.023	22.877	C.2	1	BCL0	0.000	
5	 CHD	40.832	45.174	24.432	C.2	1	BCL0	0.000	
6	  NA	40.684	49.374	21.459	N.pl3	1	BCL0	0.000	
7	 C1A	39.344	49.683	21.640	C.2	1	BCL0	0.000	
8	 C2A	38.995	51.096	21.157	C.3	1	BCL0	0.000	
9	 C3A	40.214	51.397	20.201	C.3	1	BCL0	0.000	
10	 C4A	41.197	50.400	20.779	C.2	1	BCL0	0.000	
11	 CMA	39.891	50.869	18.799	C.3	1	BCL0	0.000	
12	 CAA	38.821	52.038	22.331	C.3	1	BCL0	0.000	
13	 CBA	40.075	52.291	23.124	C.3	1	BCL0	0.000	
14	 CGA	39.808	53.348	24.186	C.2	1	BCL0	0.000	
15	 O1A	38.921	54.061	24.226	O.co2	1	BCL0	0.000	
16	 O2A	40.689	53.503	25.048	O.3	1	BCL0	0.000	
17	  NB	43.434	48.539	21.744	N.pl3	1	BCL0	0.000	
18	 C1B	43.563	49.733	21.089	C.2	1	BCL0	0.000	
19	 C2B	44.903	50.042	21.015	C.2	1	BCL0	0.000	
20	 C3B	45.602	49.064	21.609	C.2	1	BCL0	0.000	
21	 C4B	44.681	48.126	22.137	C.2	1	BCL0	0.000	
22	 CMB	45.415	51.190	20.192	C.3	1	BCL0	0.000	
23	 CAB	47.100	49.137	21.895	C.2	1	BCL0	0.000	
24	 OBB	47.641	48.355	22.585	O.2	1	BCL0	0.000	
25	 CBB	48.031	50.021	21.111	C.3	1	BCL0	0.000	
26	  NC	42.646	46.268	23.293	N.pl3	1	BCL0	0.000	
27	 C1C	43.992	46.205	23.465	C.2	1	BCL0	0.000	
28	 C2C	44.410	45.044	24.336	C.3	1	BCL0	0.000	
29	 C3C	43.166	44.254	24.546	C.3	1	BCL0	0.000	
30	 C4C	42.149	45.334	24.158	C.2	1	BCL0	0.000	
31	 CMC	45.287	44.103	23.541	C.3	1	BCL0	0.000	
32	 CAC	43.178	44.010	26.059	C.3	1	BCL0	0.000	
33	 CBC	42.917	45.263	26.909	C.3	1	BCL0	0.000	
34	  ND	40.166	47.108	23.164	N.pl3	1	BCL0	0.000	
35	 C1D	39.876	46.122	24.089	C.2	1	BCL0	0.000	
36	 C2D	38.509	46.010	24.394	C.2	1	BCL0	0.000	
37	 C3D	37.978	47.011	23.690	C.2	1	BCL0	0.000	
38	 C4D	38.992	47.684	23.013	C.2	1	BCL0	0.000	
39	 CMD	37.802	44.889	25.099	C.3	1	BCL0	0.000	
40	 CAD	36.731	47.838	23.628	C.2	1	BCL0	0.000	
41	 OBD	35.496	47.526	23.900	O.2	1	BCL0	0.000	
42	 CBD	37.099	49.129	22.796	C.3	1	BCL0	0.000	
43	 CGD	36.223	49.030	21.522	C.2	1	BCL0	0.000	
44	 O1D	35.972	48.085	21.001	O.co2	1	BCL0	0.000	
45	 O2D	35.881	50.068	20.906	O.3	1	BCL0	0.000	
46	 CED	35.647	49.778	19.424	C.3	1	BCL0	0.000	
47	  C1	40.458	54.391	26.198	C.3	1	BCL0	0.000	
48	  C2	40.550	53.651	27.525	C.2	1	BCL0	0.000	
49	  C3	41.638	53.614	28.270	C.2	1	BCL0	0.000	
50	  C4	42.917	54.259	27.830	C.3	1	BCL0	0.000	
51	  C5	41.720	52.859	29.618	C.3	1	BCL0	0.000	
52	  C6	41.016	51.487	29.492	C.3	1	BCL0	0.000	
53	  C7	40.742	51.034	30.929	C.3	1	BCL0	0.000	
54	  C8	40.642	49.541	31.084	C.3	1	BCL0	0.000	
55	  C9	41.139	48.768	29.863	C.3	1	BCL0	0.000	
56	 C10	39.177	49.291	31.263	C.3	1	BCL0	0.000	
57	 C11	38.978	49.007	32.703	C.3	1	BCL0	0.000	
58	 C12	37.477	49.127	32.881	C.3	1	BCL0	0.000	
59	 C13	37.203	49.277	34.381	C.3	1	BCL0	0.000	
60	 C14	37.582	47.952	35.048	C.3	1	BCL0	0.000	
61	 C15	35.746	49.588	34.636	C.3	1	BCL0	0.000	
62	 C16	35.513	50.923	33.995	C.3	1	BCL0	0.000	
63	 C17	34.173	51.431	34.475	C.3	1	BCL0	0.000	
64	 C18	34.070	52.954	34.420	C.3	1	BCL0	0.000	
65	 C19	33.035	53.320	35.451	C.3	1	BCL0	0.000	
66	 C20	33.515	53.424	33.060	C.3	1	BCL0	0.000	
67	 HHB	42.856	51.395	19.966	 H	1	BCL0	0.000	
68	 HHC	46.006	46.762	23.021	 H	1	BCL0	0.000	
69	 HHD	40.513	44.274	24.937	 H	1	BCL0	0.000	
70	 H2A	38.071	51.065	20.562	 H	1	BCL0	0.000	
71	 H3A	40.550	52.444	20.228	 H	1	BCL0	0.000	
72	HMA1	40.736	51.075	18.125	 H	1	BCL0	0.000	
73	HMA2	39.716	49.784	18.847	 H	1	BCL0	0.000	
74	HMA3	38.988	51.369	18.418	 H	1	BCL0	0.000	
75	HAA1	38.458	53.002	21.946	 H	1	BCL0	0.000	
76	HAA2	38.068	51.607	23.008	 H	1	BCL0	0.000	
77	HBA1	40.395	51.357	23.610	 H	1	BCL0	0.000	
78	HBA2	40.869	52.644	22.449	 H	1	BCL0	0.000	
79	HMB1	46.510	51.247	20.282	 H	1	BCL0	0.000	
80	HMB2	45.142	51.036	19.138	 H	1	BCL0	0.000	
81	HMB3	44.968	52.128	20.553	 H	1	BCL0	0.000	
82	HBB1	49.073	49.755	21.344	 H	1	BCL0	0.000	
83	HBB2	47.849	49.882	20.035	 H	1	BCL0	0.000	
84	HBB3	47.852	51.072	21.381	 H	1	BCL0	0.000	
85	 H2C	44.879	45.367	25.277	 H	1	BCL0	0.000	
86	 H3C	43.096	43.336	23.944	 H	1	BCL0	0.000	
87	HMC1	45.590	43.258	24.177	 H	1	BCL0	0.000	
88	HMC2	44.727	43.725	22.673	 H	1	BCL0	0.000	
89	HMC3	46.182	44.641	23.194	 H	1	BCL0	0.000	
90	HAC1	42.401	43.268	26.293	 H	1	BCL0	0.000	
91	HAC2	44.164	43.607	26.334	 H	1	BCL0	0.000	
92	HBC1	42.944	44.995	27.976	 H	1	BCL0	0.000	
93	HBC2	43.692	46.015	26.700	 H	1	BCL0	0.000	
94	HBC3	41.928	45.676	26.660	 H	1	BCL0	0.000	
95	HMD1	36.729	45.121	25.174	 H	1	BCL0	0.000	
96	HMD2	37.937	43.956	24.532	 H	1	BCL0	0.000	
97	HMD3	38.222	44.768	26.108	 H	1	BCL0	0.000	
98	 HBD	36.934	50.058	23.361	 H	1	BCL0	0.000	
99	HED1	35.349	50.704	18.911	 H	1	BCL0	0.000	
100	HED2	36.574	49.392	18.975	 H	1	BCL0	0.000	
101	HED3	34.849	49.028	19.319	 H	1	BCL0	0.000	
102	 H11	41.214	55.190	26.185	 H	1	BCL0	0.000	
103	 H12	39.455	54.833	26.108	 H	1	BCL0	0.000	
104	  H2	39.674	53.126	27.877	 H	1	BCL0	0.000	
105	 H41	43.689	54.107	28.599	 H	1	BCL0	0.000	
106	 H42	43.249	53.807	26.883	 H	1	BCL0	0.000	
107	 H43	42.753	55.337	27.684	 H	1	BCL0	0.000	
108	 H51	42.775	52.705	29.887	 H	1	BCL0	0.000	
109	 H52	41.225	53.453	30.400	 H	1	BCL0	0.000	
110	 H61	40.073	51.589	28.935	 H	1	BCL0	0.000	
111	 H62	41.669	50.765	28.979	 H	1	BCL0	0.000	
112	 H71	41.560	51.396	31.569	 H	1	BCL0	0.000	
113	 H72	39.793	51.482	31.259	 H	1	BCL0	0.000	
114	  H8	41.194	49.217	31.979	 H	1	BCL0	0.000	
115	 H91	41.037	47.688	30.046	 H	1	BCL0	0.000	
116	 H92	40.542	49.049	28.983	 H	1	BCL0	0.000	
117	 H93	42.196	49.011	29.681	 H	1	BCL0	0.000	
118	H101	38.600	50.179	30.966	 H	1	BCL0	0.000	
119	H102	38.861	48.429	30.657	 H	1	BCL0	0.000	
120	H111	39.325	47.994	32.956	 H	1	BCL0	0.000	
121	H112	39.508	49.742	33.326	 H	1	BCL0	0.000	
122	H121	37.104	50.009	32.341	 H	1	BCL0	0.000	
123	H122	36.980	48.224	32.497	 H	1	BCL0	0.000	
124	 H13	37.830	50.084	34.788	 H	1	BCL0	0.000	
125	H141	37.399	48.020	36.131	 H	1	BCL0	0.000	
126	H142	36.973	47.140	34.624	 H	1	BCL0	0.000	
127	H143	38.647	47.743	34.869	 H	1	BCL0	0.000	
128	H151	35.102	48.822	34.179	 H	1	BCL0	0.000	
129	H152	35.545	49.638	35.716	 H	1	BCL0	0.000	
130	H161	36.308	51.624	34.289	 H	1	BCL0	0.000	
131	H162	35.504	50.817	32.900	 H	1	BCL0	0.000	
132	H171	33.385	51.001	33.840	 H	1	BCL0	0.000	
133	H172	34.024	51.105	35.515	 H	1	BCL0	0.000	
134	 H18	35.040	53.427	34.635	 H	1	BCL0	0.000	
135	H191	32.905	54.412	35.469	 H	1	BCL0	0.000	
136	H192	32.078	52.841	35.196	 H	1	BCL0	0.000	
137	H193	33.366	52.973	36.441	 H	1	BCL0	0.000	
138	H201	33.452	54.522	33.049	 H	1	BCL0	0.000	
139	H202	34.184	53.087	32.255	 H	1	BCL0	0.000	
140	H203	32.513	52.998	32.906	 H	1	BCL0	0.000	
@<TRIPOS>BOND
1 1 6 1
2 1 17 1
3 1 26 1
4 1 34 1
5 2 7 1
6 2 38 2
7 2 42 1
8 3 10 2
9 3 18 1
10 3 67 1
11 4 21 1
12 4 27 2
13 4 68 1
14 5 30 1
15 5 35 2
16 5 69 1
17 6 7 2
18 6 10 1
19 7 8 1
20 8 9 1
21 8 12 1
22 8 70 1
23 9 10 1
24 9 11 1
25 9 71 1
26 11 72 1
27 11 73 1
28 11 74 1
29 12 13 1
30 12 75 1
31 12 76 1
32 13 14 1
33 13 77 1
34 13 78 1
35 14 15 2
36 14 16 1
37 16 47 1
38 17 18 1
39 17 21 1
40 18 19 2
41 19 20 1
42 19 22 1
43 20 21 2
44 20 23 1
45 22 79 1
46 22 80 1
47 22 81 1
48 23 24 2
49 23 25 1
50 25 82 1
51 25 83 1
52 25 84 1
53 26 27 1
54 26 30 2
55 27 28 1
56 28 29 1
57 28 31 1
58 28 85 1
59 29 30 1
60 29 32 1
61 29 86 1
62 31 87 1
63 31 88 1
64 31 89 1
65 32 33 1
66 32 90 1
67 32 91 1
68 33 92 1
69 33 93 1
70 33 94 1
71 34 35 1
72 34 38 1
73 35 36 1
74 36 37 2
75 36 39 1
76 37 38 1
77 37 40 1
78 39 95 1
79 39 96 1
80 39 97 1
81 40 41 2
82 40 42 1
83 42 43 1
84 42 98 1
85 43 44 2
86 43 45 1
87 45 46 1
88 46 99 1
89 46 100 1
90 46 101 1
91 47 48 1
92 47 102 1
93 47 103 1
94 48 49 2
95 48 104 1
96 49 50 1
97 49 51 1
98 50 105 1
99 50 106 1
100 50 107 1
101 51 52 1
102 51 108 1
103 51 109 1
104 52 53 1
105 52 110 1
106 52 111 1
107 53 54 1
108 53 112 1
109 53 113 1
110 54 55 1
111 54 56 1
112 54 114 1
113 55 115 1
114 55 116 1
115 55 117 1
116 56 57 1
117 56 118 1
118 56 119 1
119 57 58 1
120 57 120 1
121 57 121 1
122 58 59 1
123 58 122 1
124 58 123 1
125 59 60 1
126 59 61 1
127 59 124 1
128 60 125 1
129 60 126 1
130 60 127 1
131 61 62 1
132 61 128 1
133 61 129 1
134 62 63 1
135 62 130 1
136 62 131 1
137 63 64 1
138 63 132 1
139 63 133 1
140 64 65 1
141 64 66 1
142 64 134 1
143 65 135 1
144 65 136 1
145 65 137 1
146 66 138 1
147 66 139 1
148 66 140 1
@<TRIPOS>SUBSTRUCTURE
1	BCL0	1	GROUP	1 ****	BCL
