ZNH
  PyMOL2.5          3D                             0

 75 82  0  0  0  0  0  0  0  0999 V2000
   29.3260   23.3410    0.2570 Zn  0  0  0  0  0  0  0  0  0  0  0  0
   30.7520   23.4530   -2.8390 C   0  0  0  0  0  0  0  0  0  0  0  0
   31.2100   20.6210    1.0470 C   0  0  0  0  0  0  0  0  0  0  0  0
   28.1290   23.4540    3.4760 C   0  0  0  0  0  0  0  0  0  0  0  0
   27.2720   25.9400   -0.5900 C   0  0  0  0  0  0  0  0  0  0  0  0
   30.7410   22.2460   -0.7350 N   0  0  0  0  0  0  0  0  0  0  0  0
   31.2450   22.4590   -1.9870 C   0  0  0  0  0  0  0  0  0  0  0  0
   32.2740   21.4940   -2.2920 C   0  0  0  0  0  0  0  0  0  0  0  0
   32.3620   20.6790   -1.2050 C   0  0  0  0  0  0  0  0  0  0  0  0
   31.4000   21.1580   -0.2330 C   0  0  0  0  0  0  0  0  0  0  0  0
   33.2910   19.4830   -1.0450 C   0  0  0  0  0  0  0  0  0  0  0  0
   33.0940   21.4000   -3.5810 C   0  0  0  0  0  0  0  0  0  0  0  0
   32.3300   20.5120   -4.5540 C   0  0  0  0  0  0  0  0  0  0  0  0
   33.0870   20.2290   -5.8390 C   0  0  0  0  0  0  0  0  0  0  0  0
   32.5750   19.4420   -6.6590 O   0  0  0  0  0  0  0  0  0  0  0  0
   34.1900   20.7810   -6.0350 O   0  0  0  0  0  0  0  0  0  0  0  0
   29.6280   22.2540    1.9470 N   0  0  0  0  0  0  0  0  0  0  0  0
   30.3810   21.1090    2.0530 C   0  0  0  0  0  0  0  0  0  0  0  0
   30.2400   20.5150    3.3670 C   0  0  0  0  0  0  0  0  0  0  0  0
   29.4250   21.3490    4.0860 C   0  0  0  0  0  0  0  0  0  0  0  0
   29.0340   22.4260    3.1740 C   0  0  0  0  0  0  0  0  0  0  0  0
   30.8160   19.1600    3.7750 C   0  0  0  0  0  0  0  0  0  0  0  0
   29.0990   21.2650    5.4280 C   0  0  0  0  0  0  0  0  0  0  0  0
   30.0840   21.3940    6.3950 C   0  0  0  0  0  0  0  0  0  0  0  0
   28.0040   24.5490    1.2710 N   0  0  0  0  0  0  0  0  0  0  0  0
   27.6510   24.4390    2.5960 C   0  0  0  0  0  0  0  0  0  0  0  0
   26.6200   25.3950    2.9260 C   0  0  0  0  0  0  0  0  0  0  0  0
   26.3250   26.0700    1.7700 C   0  0  0  0  0  0  0  0  0  0  0  0
   27.2080   25.5350    0.7460 C   0  0  0  0  0  0  0  0  0  0  0  0
   26.0350   25.5660    4.3230 C   0  0  0  0  0  0  0  0  0  0  0  0
   25.3440   27.0480    1.5550 C   0  0  0  0  0  0  0  0  0  0  0  0
   25.2070   28.2030    2.3090 C   0  0  0  0  0  0  0  0  0  0  0  0
   29.0230   24.4590   -1.4470 N   0  0  0  0  0  0  0  0  0  0  0  0
   28.1100   25.4610   -1.6170 C   0  0  0  0  0  0  0  0  0  0  0  0
   28.2220   26.0130   -2.9280 C   0  0  0  0  0  0  0  0  0  0  0  0
   29.2430   25.3400   -3.5440 C   0  0  0  0  0  0  0  0  0  0  0  0
   29.7270   24.3720   -2.6140 C   0  0  0  0  0  0  0  0  0  0  0  0
   27.3530   27.1310   -3.4940 C   0  0  0  0  0  0  0  0  0  0  0  0
   29.8340   25.6300   -4.9150 C   0  0  0  0  0  0  0  0  0  0  0  0
   30.9620   26.6340   -4.7010 C   0  0  0  0  0  0  0  0  0  0  0  0
   31.5120   27.2330   -5.9870 C   0  0  0  0  0  0  0  0  0  0  0  0
   31.0860   26.8360   -7.0930 O   0  0  0  0  0  0  0  0  0  0  0  0
   32.3840   28.1190   -5.8790 O   0  0  0  0  0  0  0  0  0  0  0  0
   31.2310   23.5180   -3.8050 H   0  0  0  0  0  0  0  0  0  0  0  0
   31.7700   19.7270    1.2790 H   0  0  0  0  0  0  0  0  0  0  0  0
   27.7610   23.4920    4.4910 H   0  0  0  0  0  0  0  0  0  0  0  0
   26.5870   26.7260   -0.8740 H   0  0  0  0  0  0  0  0  0  0  0  0
   33.1320   19.0240   -0.0580 H   0  0  0  0  0  0  0  0  0  0  0  0
   33.0770   18.7450   -1.8320 H   0  0  0  0  0  0  0  0  0  0  0  0
   34.3360   19.8160   -1.1300 H   0  0  0  0  0  0  0  0  0  0  0  0
   33.2270   22.4020   -4.0140 H   0  0  0  0  0  0  0  0  0  0  0  0
   34.0790   20.9600   -3.3670 H   0  0  0  0  0  0  0  0  0  0  0  0
   32.1170   19.5540   -4.0570 H   0  0  0  0  0  0  0  0  0  0  0  0
   31.3830   21.0100   -4.8100 H   0  0  0  0  0  0  0  0  0  0  0  0
   34.5390   20.5030   -6.8740 H   0  0  0  0  0  0  0  0  0  0  0  0
   30.5610   18.9540    4.8250 H   0  0  0  0  0  0  0  0  0  0  0  0
   30.3920   18.3730    3.1340 H   0  0  0  0  0  0  0  0  0  0  0  0
   31.9100   19.1770    3.6600 H   0  0  0  0  0  0  0  0  0  0  0  0
   28.0740   21.0980    5.7230 H   0  0  0  0  0  0  0  0  0  0  0  0
   29.8250   21.3280    7.4410 H   0  0  0  0  0  0  0  0  0  0  0  0
   31.1100   21.5610    6.1020 H   0  0  0  0  0  0  0  0  0  0  0  0
   26.6230   26.3110    4.8790 H   0  0  0  0  0  0  0  0  0  0  0  0
   24.9920   25.9070    4.2440 H   0  0  0  0  0  0  0  0  0  0  0  0
   26.0670   24.6030    4.8540 H   0  0  0  0  0  0  0  0  0  0  0  0
   24.6460   26.8910    0.7460 H   0  0  0  0  0  0  0  0  0  0  0  0
   24.4230   28.9090    2.0780 H   0  0  0  0  0  0  0  0  0  0  0  0
   25.8850   28.3970    3.1270 H   0  0  0  0  0  0  0  0  0  0  0  0
   27.6640   27.3510   -4.5260 H   0  0  0  0  0  0  0  0  0  0  0  0
   26.2990   26.8150   -3.4890 H   0  0  0  0  0  0  0  0  0  0  0  0
   27.4680   28.0330   -2.8760 H   0  0  0  0  0  0  0  0  0  0  0  0
   30.2290   24.7050   -5.3610 H   0  0  0  0  0  0  0  0  0  0  0  0
   29.0660   26.0580   -5.5760 H   0  0  0  0  0  0  0  0  0  0  0  0
   30.5810   27.4530   -4.0740 H   0  0  0  0  0  0  0  0  0  0  0  0
   31.7840   26.1240   -4.1780 H   0  0  0  0  0  0  0  0  0  0  0  0
   32.6450   28.4140   -6.7430 H   0  0  0  0  0  0  0  0  0  0  0  0
  1  6  1  0  0  0  0
  1 17  1  0  0  0  0
  1 25  1  0  0  0  0
  1 33  1  0  0  0  0
  2  7  2  0  0  0  0
  2 37  1  0  0  0  0
  2 44  1  0  0  0  0
  3 10  2  0  0  0  0
  3 18  1  0  0  0  0
  3 45  1  0  0  0  0
  4 21  2  0  0  0  0
  4 26  1  0  0  0  0
  4 46  1  0  0  0  0
  5 29  1  0  0  0  0
  5 34  2  0  0  0  0
  5 47  1  0  0  0  0
  6  7  1  0  0  0  0
  6 10  1  0  0  0  0
  7  8  1  0  0  0  0
  8  9  2  0  0  0  0
  8 12  1  0  0  0  0
  9 10  1  0  0  0  0
  9 11  1  0  0  0  0
 11 48  1  0  0  0  0
 11 49  1  0  0  0  0
 11 50  1  0  0  0  0
 12 13  1  0  0  0  0
 12 51  1  0  0  0  0
 12 52  1  0  0  0  0
 13 14  1  0  0  0  0
 13 53  1  0  0  0  0
 13 54  1  0  0  0  0
 14 15  2  0  0  0  0
 14 16  1  0  0  0  0
 16 55  1  0  0  0  0
 17 18  2  0  0  0  0
 17 21  1  0  0  0  0
 18 19  1  0  0  0  0
 19 20  2  0  0  0  0
 19 22  1  0  0  0  0
 20 21  1  0  0  0  0
 20 23  1  0  0  0  0
 22 56  1  0  0  0  0
 22 57  1  0  0  0  0
 22 58  1  0  0  0  0
 23 24  2  0  0  0  0
 23 59  1  0  0  0  0
 24 60  1  0  0  0  0
 24 61  1  0  0  0  0
 25 26  1  0  0  0  0
 25 29  1  0  0  0  0
 26 27  2  0  0  0  0
 27 28  1  0  0  0  0
 27 30  1  0  0  0  0
 28 29  2  0  0  0  0
 28 31  1  0  0  0  0
 30 62  1  0  0  0  0
 30 63  1  0  0  0  0
 30 64  1  0  0  0  0
 31 32  2  0  0  0  0
 31 65  1  0  0  0  0
 32 66  1  0  0  0  0
 32 67  1  0  0  0  0
 33 34  1  0  0  0  0
 33 37  2  0  0  0  0
 34 35  1  0  0  0  0
 35 36  2  0  0  0  0
 35 38  1  0  0  0  0
 36 37  1  0  0  0  0
 36 39  1  0  0  0  0
 38 68  1  0  0  0  0
 38 69  1  0  0  0  0
 38 70  1  0  0  0  0
 39 40  1  0  0  0  0
 39 71  1  0  0  0  0
 39 72  1  0  0  0  0
 40 41  1  0  0  0  0
 40 73  1  0  0  0  0
 40 74  1  0  0  0  0
 41 42  2  0  0  0  0
 41 43  1  0  0  0  0
 43 75  1  0  0  0  0
M  END
$$$$
