# created with PyMOL 2.5.4
@<TRIPOS>MOLECULE
ZNH
75 82 1                 
SMALL
USER_CHARGES
@<TRIPOS>ATOM
1	  ZN	29.326	23.341	0.257	Zn	1	ZNH0	0.000	
2	 CHA	30.752	23.453	-2.839	C.2	1	ZNH0	0.000	
3	 CHB	31.210	20.621	1.047	C.2	1	ZNH0	0.000	
4	 CHC	28.129	23.454	3.476	C.2	1	ZNH0	0.000	
5	 CHD	27.272	25.940	-0.590	C.2	1	ZNH0	0.000	
6	  NA	30.741	22.246	-0.735	N.pl3	1	ZNH0	0.000	
7	 C1A	31.245	22.459	-1.987	C.2	1	ZNH0	0.000	
8	 C2A	32.274	21.494	-2.292	C.2	1	ZNH0	0.000	
9	 C3A	32.362	20.679	-1.205	C.2	1	ZNH0	0.000	
10	 C4A	31.400	21.158	-0.233	C.2	1	ZNH0	0.000	
11	 CMA	33.291	19.483	-1.045	C.3	1	ZNH0	0.000	
12	 CAA	33.094	21.400	-3.581	C.3	1	ZNH0	0.000	
13	 CBA	32.330	20.512	-4.554	C.3	1	ZNH0	0.000	
14	 CGA	33.087	20.229	-5.839	C.2	1	ZNH0	0.000	
15	 O1A	32.575	19.442	-6.659	O.co2	1	ZNH0	0.000	
16	 O2A	34.190	20.781	-6.035	O.3	1	ZNH0	0.000	
17	  NB	29.628	22.254	1.947	N.pl3	1	ZNH0	0.000	
18	 C1B	30.381	21.109	2.053	C.2	1	ZNH0	0.000	
19	 C2B	30.240	20.515	3.367	C.2	1	ZNH0	0.000	
20	 C3B	29.425	21.349	4.086	C.2	1	ZNH0	0.000	
21	 C4B	29.034	22.426	3.174	C.2	1	ZNH0	0.000	
22	 CMB	30.816	19.160	3.775	C.3	1	ZNH0	0.000	
23	 CAB	29.099	21.265	5.428	C.2	1	ZNH0	0.000	
24	 CBB	30.084	21.394	6.395	C.2	1	ZNH0	0.000	
25	  NC	28.004	24.549	1.271	N.pl3	1	ZNH0	0.000	
26	 C1C	27.651	24.439	2.596	C.2	1	ZNH0	0.000	
27	 C2C	26.620	25.395	2.926	C.2	1	ZNH0	0.000	
28	 C3C	26.325	26.070	1.770	C.2	1	ZNH0	0.000	
29	 C4C	27.208	25.535	0.746	C.2	1	ZNH0	0.000	
30	 CMC	26.035	25.566	4.323	C.3	1	ZNH0	0.000	
31	 CAC	25.344	27.048	1.555	C.2	1	ZNH0	0.000	
32	 CBC	25.207	28.203	2.309	C.2	1	ZNH0	0.000	
33	  ND	29.023	24.459	-1.447	N.pl3	1	ZNH0	0.000	
34	 C1D	28.110	25.461	-1.617	C.2	1	ZNH0	0.000	
35	 C2D	28.222	26.013	-2.928	C.2	1	ZNH0	0.000	
36	 C3D	29.243	25.340	-3.544	C.2	1	ZNH0	0.000	
37	 C4D	29.727	24.372	-2.614	C.2	1	ZNH0	0.000	
38	 CMD	27.353	27.131	-3.494	C.3	1	ZNH0	0.000	
39	 CAD	29.834	25.630	-4.915	C.3	1	ZNH0	0.000	
40	 CBD	30.962	26.634	-4.701	C.3	1	ZNH0	0.000	
41	 CGD	31.512	27.233	-5.987	C.2	1	ZNH0	0.000	
42	 O1D	31.086	26.836	-7.093	O.co2	1	ZNH0	0.000	
43	 O2D	32.384	28.119	-5.879	O.3	1	ZNH0	0.000	
44	 HHA	31.231	23.518	-3.805	 H	1	ZNH0	0.000	
45	 HHB	31.770	19.727	1.279	 H	1	ZNH0	0.000	
46	 HHC	27.761	23.492	4.491	 H	1	ZNH0	0.000	
47	 HHD	26.587	26.726	-0.874	 H	1	ZNH0	0.000	
48	HMA1	33.132	19.024	-0.058	 H	1	ZNH0	0.000	
49	HMA2	33.077	18.745	-1.832	 H	1	ZNH0	0.000	
50	HMA3	34.336	19.816	-1.130	 H	1	ZNH0	0.000	
51	HAA1	33.227	22.402	-4.014	 H	1	ZNH0	0.000	
52	HAA2	34.079	20.960	-3.367	 H	1	ZNH0	0.000	
53	HBA1	32.117	19.554	-4.057	 H	1	ZNH0	0.000	
54	HBA2	31.383	21.010	-4.810	 H	1	ZNH0	0.000	
55	 H2A	34.539	20.503	-6.874	 H	1	ZNH0	0.000	
56	HMB1	30.561	18.954	4.825	 H	1	ZNH0	0.000	
57	HMB2	30.392	18.373	3.134	 H	1	ZNH0	0.000	
58	HMB3	31.910	19.177	3.660	 H	1	ZNH0	0.000	
59	 HAB	28.074	21.098	5.723	 H	1	ZNH0	0.000	
60	HBB1	29.825	21.328	7.441	 H	1	ZNH0	0.000	
61	HBB2	31.110	21.561	6.102	 H	1	ZNH0	0.000	
62	HMC1	26.623	26.311	4.879	 H	1	ZNH0	0.000	
63	HMC2	24.992	25.907	4.244	 H	1	ZNH0	0.000	
64	HMC3	26.067	24.603	4.854	 H	1	ZNH0	0.000	
65	 HAC	24.646	26.891	0.746	 H	1	ZNH0	0.000	
66	HBC1	24.423	28.909	2.078	 H	1	ZNH0	0.000	
67	HBC2	25.885	28.397	3.127	 H	1	ZNH0	0.000	
68	HMD1	27.664	27.351	-4.526	 H	1	ZNH0	0.000	
69	HMD2	26.299	26.815	-3.489	 H	1	ZNH0	0.000	
70	HMD3	27.468	28.033	-2.876	 H	1	ZNH0	0.000	
71	HAD1	30.229	24.705	-5.361	 H	1	ZNH0	0.000	
72	HAD2	29.066	26.058	-5.576	 H	1	ZNH0	0.000	
73	HBD1	30.581	27.453	-4.074	 H	1	ZNH0	0.000	
74	HBD2	31.784	26.124	-4.178	 H	1	ZNH0	0.000	
75	 H2D	32.645	28.414	-6.743	 H	1	ZNH0	0.000	
@<TRIPOS>BOND
1 1 6 1
2 1 17 1
3 1 25 1
4 1 33 1
5 2 7 2
6 2 37 1
7 2 44 1
8 3 10 2
9 3 18 1
10 3 45 1
11 4 21 2
12 4 26 1
13 4 46 1
14 5 29 1
15 5 34 2
16 5 47 1
17 6 7 1
18 6 10 1
19 7 8 1
20 8 9 2
21 8 12 1
22 9 10 1
23 9 11 1
24 11 48 1
25 11 49 1
26 11 50 1
27 12 13 1
28 12 51 1
29 12 52 1
30 13 14 1
31 13 53 1
32 13 54 1
33 14 15 2
34 14 16 1
35 16 55 1
36 17 18 2
37 17 21 1
38 18 19 1
39 19 20 2
40 19 22 1
41 20 21 1
42 20 23 1
43 22 56 1
44 22 57 1
45 22 58 1
46 23 24 2
47 23 59 1
48 24 60 1
49 24 61 1
50 25 26 1
51 25 29 1
52 26 27 2
53 27 28 1
54 27 30 1
55 28 29 2
56 28 31 1
57 30 62 1
58 30 63 1
59 30 64 1
60 31 32 2
61 31 65 1
62 32 66 1
63 32 67 1
64 33 34 1
65 33 37 2
66 34 35 1
67 35 36 2
68 35 38 1
69 36 37 1
70 36 39 1
71 38 68 1
72 38 69 1
73 38 70 1
74 39 40 1
75 39 71 1
76 39 72 1
77 40 41 1
78 40 73 1
79 40 74 1
80 41 42 2
81 41 43 1
82 43 75 1
@<TRIPOS>SUBSTRUCTURE
1	ZNH0	1	GROUP	1 ****	ZNH
